/*--------------------------------*- C++ -*----------------------------------*\
  =========                 |
  \\      /  F ield         | OpenFOAM: The Open Source CFD Toolbox
   \\    /   O peration     | Website:  https://openfoam.org
    \\  /    A nd           | Version:  11
     \\/     M anipulation  |
\*---------------------------------------------------------------------------*/
FoamFile
{
    format      ascii;
    class       dictionary;
    object      fvSolution;
}
// * * * * * * * * * * * * * * * * * * * * * * * * * * * * * * * * * * * * * //

solvers
{
    e
    {
        solver           PCG;
        preconditioner   DIC;

        // solver           GAMG;
        // smoother         GaussSeidel;

        tolerance        1e-8;
        relTol           0;
    }

    eFinal
    {
        $e;
        relTol           0;
    }
}

PIMPLE
{
    nNonOrthogonalCorrectors 0;
}

relaxationFactors
{
    equations
    {
        ".*" 1;
    }
}

// ************************************************************************* //
