/*--------------------------------*- C++ -*----------------------------------*\
  =========                 |
  \\      /  F ield         | OpenFOAM: The Open Source CFD Toolbox
   \\    /   O peration     | Website:  https://openfoam.org
    \\  /    A nd           | Version:  11
     \\/     M anipulation  |
\*---------------------------------------------------------------------------*/
FoamFile
{
    format      ascii;
    class       dictionary;
    object      fvSolution;
}
// * * * * * * * * * * * * * * * * * * * * * * * * * * * * * * * * * * * * * //

solvers
{
    "(rho|rhoFinal)"
    {
        solver          diagonal;
    }

    p_rgh
    {
        solver           GAMG;
        smoother         GaussSeidel;

        tolerance        1e-8;
        relTol           0.01;

        maxIter          100;
    }

    "(U|e|k|epsilon|omega)"
    {
        solver          PBiCGStab;
        preconditioner  DILU;

        tolerance       1e-8;
        relTol          0;
    }

    p_rghFinal
    {
        $p_rgh;
        relTol         0;
    }

    "(U|e|k|epsilon|omega)Final"
    {
        $U;
        relTol          0;
    }
}

PIMPLE
{
    nCorrectors     2;
    nNonOrthogonalCorrectors 2;
    pRefCell        0;
    pRefValue       0;
}

relaxationFactors
{
    equations
    {
        ".*"    0.7;
    }
    fields
    {
        p_rgh   0.5;
        p       0.5;
    }
}

// ************************************************************************* //
